AMOSTRA/TAI/Capacitores.dss
! CAPACITORES — gerados de UNCRMT
! Emitidos como banco FIXO. A BDGD nao traz o ajuste do CapControl;
! se houver controle em campo, incluir CapControl aqui.
! 0 bancos descartados por PAC ausente da rede.
New Capacitor.2701446 Bus1=27384-10411955.1.2.3 Phases=3 Conn=wye kV=13.8 kvar=10.0
New Capacitor.2701293 Bus1=27384-10412876.1.2.3 Phases=3 Conn=wye kV=13.8 kvar=12.0
New Capacitor.2701491 Bus1=27384-10413583.1.2.3 Phases=3 Conn=wye kV=13.8 kvar=10.0
New Capacitor.2991723 Bus1=27382-11684551.1.2.3 Phases=3 Conn=wye kV=13.8 kvar=10.0
New Capacitor.2254172 Bus1=27383-7879246.1.2.3 Phases=3 Conn=wye kV=13.8 kvar=10.0
New Capacitor.2307486 Bus1=27385-8231057.1.2.3 Phases=3 Conn=wye kV=13.8 kvar=6.0
New Capacitor.2307453 Bus1=27385-8232509.1.2.3 Phases=3 Conn=wye kV=13.8 kvar=10.0
New Capacitor.2307356 Bus1=27385-8231657.1.2.3 Phases=3 Conn=wye kV=13.8 kvar=10.0
New Capacitor.2825234 Bus1=27385-8232089.1.2.3 Phases=3 Conn=wye kV=13.8 kvar=10.0
New Capacitor.2254191 Bus1=27383-10010937.1.2.3 Phases=3 Conn=wye kV=13.8 kvar=10.0
New Capacitor.2992447 Bus1=27384-11684274.1.2.3 Phases=3 Conn=wye kV=13.8 kvar=10.0
New Capacitor.3114162 Bus1=27382-12542274.1.2.3 Phases=3 Conn=wye kV=13.8 kvar=10.0
New Capacitor.2307304 Bus1=27385-12531619.1.2.3 Phases=3 Conn=wye kV=13.8 kvar=10.0
New Capacitor.3134456 Bus1=27385-12563098.1.2.3 Phases=3 Conn=wye kV=13.8 kvar=4.0
